Circuit: * Z:\home\user\git\voltage-mapper\voltage-mapper\ltspice\circuit.asc


Date: Wed May 14 21:21:42 2025
Total elapsed time: 0.056 seconds.

tnom = 27
temp = 27
method = trap
totiter = 2221
traniter = 0
tranpoints = 0
accept = 0
rejected = 0
matrix size = 14
fillins = 6
solver = Normal
Matrix Compiler1:      52 opcodes  0.4/[0.2]/0.2
Matrix Compiler2: off
